1 'GENROU' 1 6.5 0.06 0.2 0.05 4.0 0.0 1.8 1.75 0.6 0.8 0.23 0.15 0.09 0.38 /
2 'GENROU' 1 6.5 0.06 0.2 0.05 6.5 0.0 1.8 1.75 0.6 0.8 0.28 0.15 0.09 0.38 /
3 'GENROU' 1 6.5 0.06 0.2 0.05 5.0 0.0 1.8 1.75 0.6 0.8 0.34 0.15 0.09 0.38 /
6 'GENROU' 1 6.5 0.06 0.2 0.05 5.0 0.0 1.8 1.75 0.6 0.8 0.28 0.15 0.09 0.38 /
8 'GENROU' 1 6.5 0.06 0.2 0.05 5.0 0.0 1.8 1.75 0.6 0.8 0.34 0.15 0.09 0.38 /
1 'ST2CUT' 1 1.0 0.0 0.0 0.0 0.0 0.0 0.0 0.0 30.0 30.0 0.23 0.025 0.23 0.025 0.0 0.0 0.06 -0.06 0.0 0.0 /
2 'ST2CUT' 1 1.0 0.0 0.0 0.0 10.0 0.0 0.0 0.0 3.0 3.0 0.15 0.05 0.15 0.05 0.15 0.05 0.05 -0.05 0.0 0.0 /
1 'ESST3A' 1 0.02 0.2 -0.2 8.0 1.0 5.0 20.0 0.0 99.0 -99.0 1.0 3.67 0.435 5.48 0.01 0.0098 3.86 3.33 0.4 99.0 0.0 /
3 'ESST3A' 1 0.02 0.2 -0.2 8.0 1.0 5.0 20.0 0.0 99.0 -99.0 1.0 3.67 0.435 5.48 0.01 0.0098 3.86 3.33 0.4 99.0 0.0 /
6 'ESST3A' 1 0.02 0.2 -0.2 8.0 1.0 5.0 20.0 0.0 99.0 -99.0 1.0 3.67 0.435 5.48 0.01 0.0098 3.86 3.33 0.4 99.0 0.0 /
8 'ESST3A' 1 0.02 0.2 -0.2 8.0 1.0 5.0 20.0 0.0 99.0 -99.0 1.0 3.67 0.435 5.48 0.01 0.0098 3.86 3.33 0.4 99.0 0.0 /
1 'TGOV1' 1 0.05 0.05 1.05 0.3 1.0 2.1 0.0 /
6 'TGOV1' 1 0.05 0.05 1.05 0.3 1.0 2.1 0.0 /
8 'TGOV1' 1 0.05 0.05 1.05 0.3 1.0 2.1 0.0 /
2 'EXST1' 1 0.02 99.0 -99.0 0.0 0.02 50.0 0.02 9999.0 -9999.0 0.0 0.01 1.0 /
2 'IEEEG1' 1 0.0 0.0 20.0 0.1 0.0 0.2 1.0 -1.0 0.95 0.0 0.1 0.0 0.0 0.0 0.0 0.0 0.0 0.3 0.0 8.72 0.7 0.0 /
3 'IEEEG1' 1 0.0 0.0 20.0 0.1 0.0 0.2 1.0 -1.0 0.95 0.0 0.1 0.0 0.0 0.0 0.0 0.0 0.0 0.3 0.0 8.72 0.7 0.0 /
3 'IEEEST' 1 3.0 0.0 0.0 0.0 0.0 0.0 0.0 0.0 0.0 0.0 0.0 0.75 1.0 4.2 -2.0 0.1 -0.1 0.0 0.0 /
