0,   100.00, 33, 0, 0, 60.00     / PSS(R)E 33 RAW created by rawd33  FRI, APR 18 2025  14:38
TEXAS2K_SERIES24_CASE5_2024HIGHRENEWABLES
THIS IS A SYNTHETIC POWER SYSTEM MODEL THAT DOES NOT REPRESE
  1001,'ODESSA 2 0  ', 115.0000,1,   1,   9,   1,0.96930,  14.4837,1.10000,0.90000,1.10000,0.90000
  1002,'PRESIDIO 2 0', 115.0000,1,   1,   9,   1,1.02905,  41.1350,1.10000,0.90000,1.10000,0.90000
  1003,'O DONNELL ~1', 115.0000,1,   1,   9,   1,0.99665,  23.7530,1.10000,0.90000,1.10000,0.90000
  1004,'O DONNELL ~2', 230.0000,2,   1,   9,   1,1.01000,  16.8511,1.10000,0.90000,1.10000,0.90000
  1005,'BIG SPRING~8', 115.0000,1,   1,   9,   1,0.99809,  30.3093,1.10000,0.90000,1.10000,0.90000
  1006,'BIG SPRING~9',  13.8000,2,   1,   9,   1,1.00000,  31.3925,1.10000,0.90000,1.10000,0.90000
  1007,'VAN HORN 0  ', 115.0000,2,   1,   9,   1,1.02996,  43.7432,1.10000,0.90000,1.10000,0.90000
  1008,'IRAAN 2 0   ', 115.0000,1,   1,   9,   1,1.00938,  29.9761,1.10000,0.90000,1.10000,0.90000
  1009,'IRAAN 2 1   ',  13.8000,2,   1,   9,   1,1.00475,  31.6468,1.10000,0.90000,1.10000,0.90000
  1010,'PRESIDIO 1 0', 115.0000,1,   1,   9,   1,1.03000,  40.8908,1.10000,0.90000,1.10000,0.90000
  1011,'PRESIDIO 1 1',  22.0000,2,   1,   9,   1,1.03022,  42.6438,1.10000,0.90000,1.10000,0.90000
  1012,'SANDERSON 0 ', 115.0000,1,   1,   9,   1,1.02683,  16.6280,1.10000,0.90000,1.10000,0.90000
  1013,'MONAHANS 2 0', 115.0000,1,   1,   9,   1,0.99492,  28.8125,1.10000,0.90000,1.10000,0.90000
  1014,'GRANDFALLS 0', 115.0000,1,   1,   9,   1,0.99966,  30.1684,1.10000,0.90000,1.10000,0.90000
  1015,'MARFA 0     ', 115.0000,1,   1,   9,   1,1.03279,  41.7663,1.10000,0.90000,1.10000,0.90000
  1016,'GARDEN CIT~1', 115.0000,2,   1,   9,   1,1.00000,  36.0513,1.10000,0.90000,1.10000,0.90000
  1017,'ODESSA 4 0  ', 115.0000,1,   1,   9,   1,0.97721,  20.3716,1.10000,0.90000,1.10000,0.90000
  1018,'NOTREES 0   ', 115.0000,1,   1,   9,   1,0.98871,  21.7870,1.10000,0.90000,1.10000,0.90000
  1019,'MIDLAND 4 0 ', 115.0000,1,   1,   9,   1,0.98454,  17.2306,1.10000,0.90000,1.10000,0.90000
  1020,'BIG SPRING~1', 115.0000,1,   1,   9,   1,1.00017,  24.1269,1.10000,0.90000,1.10000,0.90000
  1021,'BIG SPRING~2',  13.8000,2,   1,   9,   1,1.00000,  27.4791,1.10000,0.90000,1.10000,0.90000
  1022,'O DONNELL ~3', 115.0000,2,   1,   9,   1,1.00136,  24.7715,1.10000,0.90000,1.10000,0.90000
  1023,'O DONNELL ~4',  13.8000,2,   1,   9,   1,1.01000,  31.9028,1.10000,0.90000,1.10000,0.90000
  1024,'ODESSA 6 0  ', 115.0000,1,   1,   9,   1,0.99311,  22.9730,1.10000,0.90000,1.10000,0.90000
  1025,'BIG SPRIN~14', 115.0000,1,   1,   9,   1,1.00013,  25.6633,1.10000,0.90000,1.10000,0.90000
  1026,'BIG SPRIN~15',  13.8000,2,   1,   9,   1,1.00000,  30.4821,1.10000,0.90000,1.10000,0.90000
  1027,'MIDLAND 2 0 ', 115.0000,2,   1,   9,   1,1.01052,  22.5244,1.10000,0.90000,1.10000,0.90000
  1028,'COAHOMA 0   ', 115.0000,2,   1,   9,   1,1.00000,  21.6556,1.10000,0.90000,1.10000,0.90000
  1029,'MIDLAND 3 0 ', 115.0000,2,   1,   9,   1,1.00000,  23.4626,1.10000,0.90000,1.10000,0.90000
  1030,'ALPINE 0    ', 115.0000,2,   1,   9,   1,1.02034,  37.1963,1.10000,0.90000,1.10000,0.90000
  1031,'FORT DAVIS 0', 115.0000,1,   1,   9,   1,1.01067,  37.6797,1.10000,0.90000,1.10000,0.90000
  1032,'MCCAMEY 1 0 ', 115.0000,2,   1,   9,   1,0.99274,  28.2359,1.10000,0.90000,1.10000,0.90000
  1033,'MCCAMEY 1 1 ', 230.0000,2,   1,   9,   1,1.00000,  24.7594,1.10000,0.90000,1.10000,0.90000
  1034,'BIG SPRING~6', 115.0000,1,   1,   9,   1,1.00098,  33.1026,1.10000,0.90000,1.10000,0.90000
  1035,'BIG SPRING~7',  13.8000,2,   1,   9,   1,1.00000,  34.7502,1.10000,0.90000,1.10000,0.90000
  1036,'CRANE 0     ', 115.0000,2,   1,   9,   1,0.99715,  32.1945,1.10000,0.90000,1.10000,0.90000
  1037,'ODESSA 5 0  ', 115.0000,2,   1,   9,   1,0.97193,  18.7035,1.10000,0.90000,1.10000,0.90000
  1038,'FORT STOCK~1', 115.0000,1,   1,   9,   1,1.01095,  33.3323,1.10000,0.90000,1.10000,0.90000
  1039,'FORT STOCK~2',  22.0000,2,   1,   9,   1,1.00182,  36.0337,1.10000,0.90000,1.10000,0.90000
  1040,'ANDREWS 0   ', 115.0000,2,   1,   9,   1,1.00000,  25.3129,1.10000,0.90000,1.10000,0.90000
  1041,'FORSAN 0    ', 115.0000,1,   1,   9,   1,1.00365,  32.3619,1.10000,0.90000,1.10000,0.90000
  1042,'FORSAN 1    ',  13.8000,1,   1,   9,   1,1.00365,  32.3619,1.10000,0.90000,1.10000,0.90000
  1043,'FORSAN 2    ',  13.8000,2,   1,   9,   1,1.00000,  33.9841,1.10000,0.90000,1.10000,0.90000
  1044,'BIG LAKE 0  ', 115.0000,2,   1,   9,   1,1.00000,  13.8890,1.10000,0.90000,1.10000,0.90000
  1045,'MIDLAND 5 0 ', 115.0000,1,   1,   9,   1,0.97475,  16.8601,1.10000,0.90000,1.10000,0.90000
  1046,'OZONA 0     ', 115.0000,2,   1,   9,   1,1.00000,  23.6645,1.10000,0.90000,1.10000,0.90000
  1047,'MONAHANS 1 0', 115.0000,1,   1,   9,   1,0.99187,  25.2394,1.10000,0.90000,1.10000,0.90000
  1048,'MONAHANS 1 1',  18.0000,1,   1,   9,   1,0.99187,  25.2394,1.10000,0.90000,1.10000,0.90000
  1049,'MONAHANS 1 2',  18.0000,1,   1,   9,   1,0.99187,  25.2394,1.10000,0.90000,1.10000,0.90000
  1050,'MONAHANS 1 3',  18.0000,2,   1,   9,   1,1.00000,  26.4209,1.10000,0.90000,1.10000,0.90000
  1051,'MONAHANS 1 4',  18.0000,1,   1,   9,   1,0.99187,  25.2394,1.10000,0.90000,1.10000,0.90000
  1052,'MONAHANS 1 5',  18.0000,1,   1,   9,   1,0.99187,  25.2394,1.10000,0.90000,1.10000,0.90000
  1053,'MONAHANS 1 6', 230.0000,1,   1,   9,   1,0.99622,  22.2687,1.10000,0.90000,1.10000,0.90000
  1054,'STANTON 0   ', 115.0000,1,   1,   9,   1,1.00922,  26.7684,1.10000,0.90000,1.10000,0.90000
  1055,'ODONNELL 0  ', 115.0000,2,   1,   9,   1,1.00000,  24.8281,1.10000,0.90000,1.10000,0.90000
  1056,'LENORAH 0   ', 115.0000,1,   1,   9,   1,1.02169,  25.7737,1.10000,0.90000,1.10000,0.90000
  1057,'LENORAH 1   ',  18.0000,1,   1,   9,   1,1.02169,  25.7737,1.10000,0.90000,1.10000,0.90000
  1058,'IRAAN 3 0   ', 115.0000,1,   1,   9,   1,1.01770,  28.0110,1.10000,0.90000,1.10000,0.90000
  1059,'IRAAN 3 1   ',  22.0000,1,   1,   9,   1,1.01770,  28.0110,1.10000,0.90000,1.10000,0.90000
  1060,'IRAAN 3 2   ',  22.0000,1,   1,   9,   1,1.01770,  28.0110,1.10000,0.90000,1.10000,0.90000
  1061,'BIG SPRIN~10', 115.0000,2,   1,   9,   1,1.00000,  28.9366,1.10000,0.90000,1.10000,0.90000
  1062,'BIG SPRIN~11',  13.8000,2,   1,   9,   1,1.01000,  31.0151,1.10000,0.90000,1.10000,0.90000
  1063,'BIG SPRIN~12',  13.8000,2,   1,   9,   1,1.01000,  30.9768,1.10000,0.90000,1.10000,0.90000
  1064,'ODESSA 3 0  ', 115.0000,1,   1,   9,   1,0.96546,  14.8410,1.10000,0.90000,1.10000,0.90000
  1065,'BIG SPRING~4', 115.0000,1,   1,   9,   1,1.00571,  32.5588,1.10000,0.90000,1.10000,0.90000
  1066,'BIG SPRING~5',  13.8000,2,   1,   9,   1,1.00000,  36.3255,1.10000,0.90000,1.10000,0.90000
  1067,'BIG SPRIN~13', 115.0000,1,   1,   9,   1,1.00143,  31.7622,1.10000,0.90000,1.10000,0.90000
  1068,'MIDLAND 1 0 ', 115.0000,1,   1,   9,   1,0.98973,  34.6461,1.10000,0.90000,1.10000,0.90000
  1069,'IRAAN 1 0   ', 115.0000,1,   1,   9,   1,1.01620,  30.4748,1.10000,0.90000,1.10000,0.90000
  1070,'IRAAN 1 1   ',  13.8000,2,   1,   9,   1,1.02877,  32.7567,1.10000,0.90000,1.10000,0.90000
  1071,'ODESSA 1 0  ', 115.0000,1,   1,   9,   1,0.97322,  14.2831,1.10000,0.90000,1.10000,0.90000
  1072,'ODESSA 1 1  ',  18.0000,2,   1,   9,   1,1.01000,  16.0127,1.10000,0.90000,1.10000,0.90000
  1073,'ODESSA 1 2  ',  18.0000,2,   1,   9,   1,1.01000,  17.3065,1.10000,0.90000,1.10000,0.90000
  1074,'ODESSA 1 3  ',  18.0000,1,   1,   9,   1,0.97322,  14.2831,1.10000,0.90000,1.10000,0.90000
  1075,'ODESSA 1 4  ',  18.0000,1,   1,   9,   1,0.97322,  14.2831,1.10000,0.90000,1.10000,0.90000
  1076,'ODESSA 1 5  ',  18.0000,1,   1,   9,   1,0.97322,  14.2831,1.10000,0.90000,1.10000,0.90000
  1077,'ODESSA 1 6  ',  18.0000,1,   1,   9,   1,0.97322,  14.2831,1.10000,0.90000,1.10000,0.90000
  1078,'ODESSA 1 7  ',  18.0000,1,   1,   9,   1,0.97322,  14.2831,1.10000,0.90000,1.10000,0.90000
  1079,'ODESSA 1 8  ', 500.0000,1,   1,   9,   1,0.99792,  -3.0814,1.10000,0.90000,1.10000,0.90000
  1080,'ODESSA 1 9  ',  18.0000,1,   1,   9,   1,0.97322,  14.2831,1.10000,0.90000,1.10000,0.90000
  1081,'ODESSA 1 10 ', 230.0000,1,   1,   9,   1,0.99724,  20.2412,1.10000,0.90000,1.10000,0.90000
  1082,'FORT STOCK~3', 115.0000,2,   1,   9,   1,1.01323,  33.4145,1.10000,0.90000,1.10000,0.90000
  1083,'FORT STOCK~4', 115.0000,2,   1,   9,   1,1.01384,  36.2335,1.10000,0.90000,1.10000,0.90000
  1084,'BIG SPRING~3', 115.0000,2,   1,   9,   1,1.00317,  22.5582,1.10000,0.90000,1.10000,0.90000
  1085,'KERMIT 0    ', 115.0000,2,   1,   9,   1,1.00000,  27.9362,1.10000,0.90000,1.10000,0.90000
  1086,'PECOS 0     ', 115.0000,2,   1,   9,   1,1.01849,  28.4868,1.10000,0.90000,1.10000,0.90000
  1087,'SHEFFIELD 0 ', 115.0000,1,   1,   9,   1,1.02787,  23.0199,1.10000,0.90000,1.10000,0.90000
  1088,'MCCAMEY 2 0 ', 115.0000,2,   1,   9,   1,1.00000,  35.1879,1.10000,0.90000,1.10000,0.90000
  1089,'LAMESA 0    ', 115.0000,2,   1,   9,   1,1.00000,  30.1548,1.10000,0.90000,1.10000,0.90000
  1090,'GOLDSMITH 0 ', 115.0000,2,   1,   9,   1,1.00366,  24.4165,1.10000,0.90000,1.10000,0.90000
  1091,'RALLS 2 0   ', 161.0000,1,   1,   9,   1,0.98182,  23.9420,1.10000,0.90000,1.10000,0.90000
  2001,'PARIS 3 0   ', 161.0000,1,   2,  11,   1,1.02737, -29.0439,1.10000,0.90000,1.10000,0.90000
  2002,'SAVOY 0     ', 500.0000,1,   2,  11,   1,1.02990, -28.3747,1.10000,0.90000,1.10000,0.90000
  2003,'SAVOY 1     ', 161.0000,1,   2,  11,   1,1.02962, -29.0156,1.10000,0.90000,1.10000,0.90000
  2004,'SAVOY 2     ',  13.8000,1,   2,  11,   1,1.02990, -28.3747,1.10000,0.90000,1.10000,0.90000
  2005,'SAVOY 3     ',  13.8000,1,   2,  11,   1,1.02990, -28.3747,1.10000,0.90000,1.10000,0.90000
  2006,'SAVOY 4     ',  13.8000,1,   2,  11,   1,1.02990, -28.3747,1.10000,0.90000,1.10000,0.90000
  2007,'HONEY GROV~1', 161.0000,1,   2,  11,   1,1.02807, -28.6508,1.10000,0.90000,1.10000,0.90000
  2008,'MEMPHIS 0   ', 161.0000,2,   2,  10,   1,1.00232,  30.3511,1.10000,0.90000,1.10000,0.90000
  2009,'IOWA PARK 0 ', 161.0000,1,   2,  11,   1,0.99636,   1.0101,1.10000,0.90000,1.10000,0.90000
  2010,'VERNON 2 0  ', 161.0000,2,   2,  10,   1,1.00000,  22.3817,1.10000,0.90000,1.10000,0.90000
  2011,'PANHANDLE ~2', 500.0000,2,   2,  10,   1,1.02000,  16.0765,1.10000,0.90000,1.10000,0.90000
  2012,'PANHANDLE ~3', 161.0000,2,   2,  10,   1,0.99632,  22.1400,1.10000,0.90000,1.10000,0.90000
  2013,'PANHANDLE ~4',  18.0000,2,   2,  10,   1,1.00923,  18.6047,1.10000,0.90000,1.10000,0.90000
  2014,'CHILDRESS 0 ', 161.0000,1,   2,  10,   1,0.99810,  31.5618,1.10000,0.90000,1.10000,0.90000
  2015,'FORESTBURG 0', 161.0000,1,   2,  11,   1,1.00240, -18.9619,1.10000,0.90000,1.10000,0.90000
  2016,'SHERMAN 3 0 ', 161.0000,2,   2,  11,   1,1.02316, -31.2787,1.10000,0.90000,1.10000,0.90000
  2017,'PANHANDLE ~7', 500.0000,1,   2,  10,   1,1.03003,  11.1699,1.10000,0.90000,1.10000,0.90000
  2018,'PANHANDLE ~8', 161.0000,1,   2,  10,   1,1.00583,  14.8552,1.10000,0.90000,1.10000,0.90000
  2019,'PANHANDLE ~9',  20.0000,1,   2,  10,   1,1.03003,  11.1699,1.10000,0.90000,1.10000,0.90000
  2020,'WICHITA F~12', 161.0000,1,   2,  11,   1,0.97908,  -4.8366,1.10000,0.90000,1.10000,0.90000
  2021,'PARIS 2 0   ', 500.0000,1,   2,  11,   1,1.03504, -27.8323,1.10000,0.90000,1.10000,0.90000
  2022,'PARIS 2 1   ', 161.0000,1,   2,  11,   1,1.03233, -28.5136,1.10000,0.90000,1.10000,0.90000
  2023,'PARIS 2 2   ',  13.8000,1,   2,  11,   1,1.03504, -27.8323,1.10000,0.90000,1.10000,0.90000
  2024,'PARIS 2 3   ',  13.8000,1,   2,  11,   1,1.03504, -27.8323,1.10000,0.90000,1.10000,0.90000
  2025,'WICHITA F~10', 161.0000,1,   2,  11,   1,0.97756,  -4.9206,1.10000,0.90000,1.10000,0.90000
  2026,'WHEELER 0   ', 161.0000,1,   2,  10,   1,1.00261,  17.5796,1.10000,0.90000,1.10000,0.90000
  2027,'DEPORT 0    ', 161.0000,1,   2,  11,   1,1.02869, -29.1737,1.10000,0.90000,1.10000,0.90000
  2028,'WICHITA FA~9', 161.0000,1,   2,  11,   1,0.98639,  -4.5969,1.10000,0.90000,1.10000,0.90000
  2029,'SILVERTON 0 ', 161.0000,2,   2,  10,   1,1.00000,  33.0576,1.10000,0.90000,1.10000,0.90000
  2030,'BONHAM 0    ', 161.0000,1,   2,  11,   1,1.01729, -29.8414,1.10000,0.90000,1.10000,0.90000
  2031,'MATADOR 0   ', 161.0000,1,   2,  10,   1,1.00196,  24.7775,1.10000,0.90000,1.10000,0.90000
  2032,'ARTHUR CIT~1', 161.0000,1,   2,  11,   1,1.02971, -28.4617,1.10000,0.90000,1.10000,0.90000
  2033,'LEONARD 0   ', 161.0000,1,   2,  11,   1,1.01837, -30.0965,1.10000,0.90000,1.10000,0.90000
  2034,'GORDONVILL~1', 161.0000,1,   2,  11,   1,1.02567, -31.1676,1.10000,0.90000,1.10000,0.90000
  2035,'KNOX CITY 0 ', 161.0000,2,   2,  10,   1,1.00000,  33.3691,1.10000,0.90000,1.10000,0.90000
  2036,'WICHITA F~13', 161.0000,1,   2,  11,   1,0.98087,  -3.5041,1.10000,0.90000,1.10000,0.90000
  2037,'LINDSAY 0   ', 161.0000,1,   2,  11,   1,1.00971, -18.9776,1.10000,0.90000,1.10000,0.90000
  2038,'ECTOR 0     ', 161.0000,1,   2,  11,   1,1.02903, -28.8811,1.10000,0.90000,1.10000,0.90000
  2039,'SUNSET 0    ', 161.0000,1,   2,  11,   1,0.99273, -18.1159,1.10000,0.90000,1.10000,0.90000
  2040,'CLARKSVILL~1', 161.0000,1,   2,  11,   1,1.03227, -28.7326,1.10000,0.90000,1.10000,0.90000
  2041,'PANHANDLE ~5', 161.0000,2,   2,  10,   1,1.00000,  26.2362,1.10000,0.90000,1.10000,0.90000
  2042,'PANHANDLE ~6',  18.0000,2,   2,  10,   1,1.01000,  29.8134,1.10000,0.90000,1.10000,0.90000
  2043,'SADLER 0    ', 161.0000,1,   2,  11,   1,1.02456, -31.2257,1.10000,0.90000,1.10000,0.90000
  2044,'WHITESBORO 0', 161.0000,1,   2,  11,   1,1.00752, -24.1295,1.10000,0.90000,1.10000,0.90000
  2045,'SHEPPARD A~1', 161.0000,1,   2,  11,   1,0.98024,  -4.8133,1.10000,0.90000,1.10000,0.90000
  2046,'POTTSBORO 0 ', 161.0000,1,   2,  11,   1,1.02707, -31.0790,1.10000,0.90000,1.10000,0.90000
  2047,'BELLS 0     ', 161.0000,1,   2,  11,   1,1.02911, -29.3981,1.10000,0.90000,1.10000,0.90000
  2048,'CROSBYTON 0 ', 161.0000,2,   2,  10,   1,1.00000,  25.6278,1.10000,0.90000,1.10000,0.90000
  2049,'ELECTRA 0   ', 161.0000,2,   2,  10,   1,1.00000,   9.9637,1.10000,0.90000,1.10000,0.90000
  2050,'PATTONVILL~1', 161.0000,1,   2,  11,   1,1.02384, -29.9067,1.10000,0.90000,1.10000,0.90000
  2051,'HENRIETTA 0 ', 161.0000,2,   2,  11,   1,1.00000,  -9.4270,1.10000,0.90000,1.10000,0.90000
  2052,'PANHANDLE~13', 161.0000,1,   2,  10,   1,0.99434,  26.1181,1.10000,0.90000,1.10000,0.90000
  2053,'BOWIE 0     ', 161.0000,1,   2,  11,   1,0.99314, -20.5738,1.10000,0.90000,1.10000,0.90000
  2054,'WICHITA FA~1', 500.0000,1,   2,  11,   1,0.98161,  -5.6347,1.10000,0.90000,1.10000,0.90000
  2055,'WICHITA FA~2', 161.0000,1,   2,  11,   1,0.97879,  -4.7765,1.10000,0.90000,1.10000,0.90000
  2056,'WICHITA FA~3',  18.0000,1,   2,  11,   1,0.98161,  -5.6347,1.10000,0.90000,1.10000,0.90000
  2057,'WICHITA FA~4',  18.0000,2,   2,  11,   1,0.99000,  -5.3849,1.10000,0.90000,1.10000,0.90000
  2058,'WHITE DEER 0', 161.0000,1,   2,  10,   1,1.00098,  25.0325,1.10000,0.90000,1.10000,0.90000
  2059,'WHITE DEER 1',  13.8000,2,   2,  10,   1,1.00000,  28.5054,1.10000,0.90000,1.10000,0.90000
  2060,'ROXTON 0    ', 161.0000,1,   2,  11,   1,1.02479, -29.4504,1.10000,0.90000,1.10000,0.90000
  2061,'VERNON 1 0  ', 161.0000,1,   2,  10,   1,1.00122,  15.0286,1.10000,0.90000,1.10000,0.90000
  2062,'VERNON 1 1  ',  18.0000,2,   2,  10,   1,1.01367,  17.3554,1.10000,0.90000,1.10000,0.90000
  2063,'DENISON 2 0 ', 161.0000,1,   2,  11,   1,1.02982, -30.8764,1.10000,0.90000,1.10000,0.90000
  2064,'SUMNER 0    ', 161.0000,1,   2,  11,   1,1.02842, -28.9940,1.10000,0.90000,1.10000,0.90000
  2065,'GAINESVILL~1', 161.0000,2,   2,  11,   1,1.00529, -20.8185,1.10000,0.90000,1.10000,0.90000
  2066,'ASPERMONT 0 ', 161.0000,1,   2,  10,   1,0.98470,  23.8953,1.10000,0.90000,1.10000,0.90000
  2067,'WICHITA F~11', 161.0000,1,   2,  11,   1,0.97802,  -4.9792,1.10000,0.90000,1.10000,0.90000
  2068,'WINDTHORST 0', 161.0000,1,   2,  11,   1,0.99095,  -4.3920,1.10000,0.90000,1.10000,0.90000
  2069,'HOWE 0      ', 161.0000,1,   2,  11,   1,1.03000, -30.8849,1.10000,0.90000,1.10000,0.90000
  2070,'ARCHER 2 0  ', 161.0000,1,   2,  11,   1,0.99419,  -4.5419,1.10000,0.90000,1.10000,0.90000
  2071,'ARCHER 2 1  ',  18.0000,2,   2,  11,   1,1.00000,  -0.8469,1.10000,0.90000,1.10000,0.90000
  2072,'COLLINSVIL~1', 161.0000,1,   2,  11,   1,1.02597, -29.9380,1.10000,0.90000,1.10000,0.90000
  2073,'JAYTON 0    ', 161.0000,1,   2,  10,   1,0.99064,  16.6824,1.10000,0.90000,1.10000,0.90000
  2074,'JAYTON 1    ', 115.0000,1,   2,  10,   1,0.99298,  19.5731,1.10000,0.90000,1.10000,0.90000
  2075,'JAYTON 2    ', 115.0000,1,   2,  10,   1,0.99298,  19.5731,1.10000,0.90000,1.10000,0.90000
  2076,'JAYTON 3    ',  24.0000,2,   2,  10,   1,0.99602,  17.6350,1.10000,0.90000,1.10000,0.90000
  2077,'MUENSTER 1 0', 161.0000,1,   2,  11,   1,1.01628, -16.5570,1.10000,0.90000,1.10000,0.90000
  2078,'MUENSTER 1 1',  13.8000,2,   2,  11,   1,1.02000, -13.2315,1.10000,0.90000,1.10000,0.90000
  2079,'PADUCAH 0   ', 161.0000,1,   2,  10,   1,1.00142,  23.6253,1.10000,0.90000,1.10000,0.90000
  2080,'NOCONA 0    ', 161.0000,1,   2,  11,   1,1.00036, -13.1347,1.10000,0.90000,1.10000,0.90000
  2081,'DODD CITY 0 ', 161.0000,2,   2,  11,   1,1.02776, -28.6085,1.10000,0.90000,1.10000,0.90000
  2082,'WICHITA FA~5', 161.0000,1,   2,  11,   1,0.98452,  -2.0726,1.10000,0.90000,1.10000,0.90000
  2083,'WICHITA FA~6',  20.0000,1,   2,  11,   1,0.98452,  -2.0726,1.10000,0.90000,1.10000,0.90000
  2084,'WICHITA FA~7',  20.0000,1,   2,  11,   1,0.98452,  -2.0726,1.10000,0.90000,1.10000,0.90000
  2085,'WICHITA FA~8',  20.0000,1,   2,  11,   1,0.98452,  -2.0726,1.10000,0.90000,1.10000,0.90000
  2086,'MONTAGUE 0  ', 161.0000,1,   2,  11,   1,0.99510, -16.1974,1.10000,0.90000,1.10000,0.90000
  2087,'SPUR 0      ', 161.0000,2,   2,  10,   1,1.00140,  24.2180,1.10000,0.90000,1.10000,0.90000
  2088,'ARCHER 1 0  ', 161.0000,1,   2,  11,   1,0.99275,  -4.3007,1.10000,0.90000,1.10000,0.90000
  2089,'ARCHER 1 1  ',  24.0000,2,   2,  11,   1,1.00000,  -0.6800,1.10000,0.90000,1.10000,0.90000
  2090,'ANNONA 0    ', 161.0000,1,   2,  11,   1,1.03006, -29.3231,1.10000,0.90000,1.10000,0.90000
  2091,'SEYMOUR 0   ', 161.0000,2,   2,  10,   1,1.00000,  30.7101,1.10000,0.90000,1.10000,0.90000
  2092,'DENISON 1 0 ', 161.0000,1,   2,  11,   1,1.02851, -30.1727,1.10000,0.90000,1.10000,0.90000
  2093,'PANHANDLE~10', 161.0000,2,   2,  10,   1,1.00000,  19.0076,1.10000,0.90000,1.10000,0.90000
  2094,'PANHANDLE~11',  13.8000,2,   2,  10,   1,1.00000,  19.4442,1.10000,0.90000,1.10000,0.90000
  2095,'PANHANDLE~12',  13.8000,2,   2,  10,   1,1.00000,  19.2232,1.10000,0.90000,1.10000,0.90000
  2096,'RALLS 1 0   ', 500.0000,1,   2,  10,   1,1.02133,  10.6291,1.10000,0.90000,1.10000,0.90000
  2097,'RALLS 1 1   ', 230.0000,1,   2,  10,   1,1.01044,  13.3348,1.10000,0.90000,1.10000,0.90000
  2098,'RALLS 1 2   ', 161.0000,1,   2,  10,   1,0.97897,  22.2186,1.10000,0.90000,1.10000,0.90000
  2099,'RALLS 1 3   ',  18.0000,2,   2,  10,   1,1.02086,  10.7726,1.10000,0.90000,1.10000,0.90000
  2100,'RALLS 1 4   ',  18.0000,2,   2,  10,   1,1.02000,  13.2514,1.10000,0.90000,1.10000,0.90000
  2101,'SHERMAN 1 0 ', 500.0000,1,   2,  11,   1,1.02656, -28.4180,1.10000,0.90000,1.10000,0.90000
  2102,'SHERMAN 1 1 ', 161.0000,1,   2,  11,   1,1.02117, -28.3745,1.10000,0.90000,1.10000,0.90000
  2103,'SHERMAN 1 2 ',  20.0000,1,   2,  11,   1,1.02656, -28.4180,1.10000,0.90000,1.10000,0.90000
  2104,'SHERMAN 1 3 ',  20.0000,1,   2,  11,   1,1.02656, -28.4180,1.10000,0.90000,1.10000,0.90000
  2105,'SHERMAN 1 4 ',  20.0000,1,   2,  11,   1,1.02656, -28.4180,1.10000,0.90000,1.10000,0.90000
  2106,'WHITEWRIGH~1', 161.0000,1,   2,  11,   1,1.01600, -30.2115,1.10000,0.90000,1.10000,0.90000
  2107,'SHERMAN 2 0 ', 161.0000,1,   2,  11,   1,1.01697, -28.6232,1.10000,0.90000,1.10000,0.90000
  2108,'ROCHESTER 0 ', 161.0000,1,   2,  10,   1,0.99582,   8.4670,1.10000,0.90000,1.10000,0.90000
  2109,'BURKBURNET~1', 161.0000,2,   2,  11,   1,1.00000,  -0.8504,1.10000,0.90000,1.10000,0.90000
  2110,'MUENSTER 2 0', 161.0000,1,   2,  11,   1,1.01696, -17.6116,1.10000,0.90000,1.10000,0.90000
  2111,'ARCHER CIT~1', 161.0000,1,   2,  11,   1,0.98951,  -5.8383,1.10000,0.90000,1.10000,0.90000
  2112,'PETROLIA 0  ', 161.0000,1,   2,  11,   1,0.98991,  -6.0997,1.10000,0.90000,1.10000,0.90000
  2113,'PARIS 1 0   ', 500.0000,2,   2,  11,   1,1.03527, -27.7288,1.10000,0.90000,1.10000,0.90000
  2114,'PARIS 1 1   ', 161.0000,2,   2,  11,   1,1.03319, -27.9637,1.10000,0.90000,1.10000,0.90000
  2115,'PARIS 1 2   ',  13.8000,2,   2,  11,   1,1.03547, -26.7504,1.10000,0.90000,1.10000,0.90000
  2116,'PARIS 1 3   ',  13.8000,2,   2,  11,   1,1.03131, -26.2894,1.10000,0.90000,1.10000,0.90000
  2117,'PARIS 1 4   ',  13.8000,2,   2,  11,   1,1.03527, -26.5956,1.10000,0.90000,1.10000,0.90000
  2118,'PARIS 1 5   ',  13.8000,2,   2,  11,   1,1.03532, -26.4739,1.10000,0.90000,1.10000,0.90000
  2119,'PARIS 1 6   ',  13.8000,2,   2,  11,   1,1.03537, -27.1081,1.10000,0.90000,1.10000,0.90000
  2120,'PARIS 1 7   ',  13.8000,2,   2,  11,   1,1.03536, -26.5229,1.10000,0.90000,1.10000,0.90000
  2121,'BAGWELL 0   ', 161.0000,1,   2,  11,   1,1.03203, -28.9587,1.10000,0.90000,1.10000,0.90000
  2122,'TELEPHONE 0 ', 161.0000,1,   2,  11,   1,1.02448, -29.0406,1.10000,0.90000,1.10000,0.90000
  2123,'PANHANDLE ~1', 161.0000,2,   2,  10,   1,1.00000,  25.3911,1.10000,0.90000,1.10000,0.90000
  2124,'VAN ALSTYN~1', 161.0000,1,   2,  11,   1,1.01297, -30.5529,1.10000,0.90000,1.10000,0.90000
  2125,'TIOGA 0     ', 161.0000,1,   2,  11,   1,1.00835, -28.8356,1.10000,0.90000,1.10000,0.90000
  2126,'VALLEY VIE~1', 161.0000,1,   2,  11,   1,1.00726, -22.8402,1.10000,0.90000,1.10000,0.90000
  2127,'MIAMI 0     ', 500.0000,2,   2,  10,   1,1.04000,  10.5607,1.10000,0.90000,1.10000,0.90000
  2128,'MIAMI 1     ', 161.0000,1,   2,  10,   1,1.01184,  14.1321,1.10000,0.90000,1.10000,0.90000
  2129,'TRENTON 0   ', 161.0000,1,   2,  11,   1,1.01833, -30.0632,1.10000,0.90000,1.10000,0.90000
  2130,'HASKELL 0   ', 161.0000,2,   2,  10,   1,1.00000,  12.4789,1.10000,0.90000,1.10000,0.90000
  2131,'HASKELL 1   ', 115.0000,2,   2,  10,   1,1.00000,  14.9085,1.10000,0.90000,1.10000,0.90000
  2132,'HASKELL 2   ', 115.0000,2,   2,  10,   1,1.00000,  18.0063,1.10000,0.90000,1.10000,0.90000
  2133,'SAINT JO 0  ', 161.0000,1,   2,  11,   1,1.01286, -15.9082,1.10000,0.90000,1.10000,0.90000
  3001,'KERRVILLE 0 ', 230.0000,1,   3,  28,   1,1.01488, -45.9627,1.10000,0.90000,1.10000,0.90000
  3002,'KERRVILLE 1 ', 115.0000,1,   3,  28,   1,0.99596, -45.6567,1.10000,0.90000,1.10000,0.90000
  3003,'SWEETWATER~4', 115.0000,1,   3,  27,   1,1.00564,  16.3207,1.10000,0.90000,1.10000,0.90000
  3004,'SWEETWATER~5',  18.0000,2,   3,  27,   1,1.00328,  17.1328,1.10000,0.90000,1.10000,0.90000
  3005,'LEAKEY 0    ', 115.0000,1,   3,  28,   1,1.01753, -33.9661,1.10000,0.90000,1.10000,0.90000
  3006,'HAMLIN 0    ', 115.0000,1,   3,  27,   1,1.01597,  14.8080,1.10000,0.90000,1.10000,0.90000
  3007,'MERKEL 3 0  ', 115.0000,1,   3,  27,   1,1.01677,  12.6781,1.10000,0.90000,1.10000,0.90000
  3008,'COLEMAN 0   ', 115.0000,1,   3,  27,   1,0.95901,   4.4141,1.10000,0.90000,1.10000,0.90000
  3009,'SONORA 0    ', 115.0000,1,   3,  28,   1,0.99337,  13.3078,1.10000,0.90000,1.10000,0.90000
  3010,'CAMP WOOD 0 ', 115.0000,1,   3,  28,   1,0.99445, -28.1918,1.10000,0.90000,1.10000,0.90000
  3011,'LLANO 0     ', 115.0000,1,   3,  28,   1,1.02040, -45.6443,1.10000,0.90000,1.10000,0.90000
  3012,'WILLOW CIT~1', 115.0000,1,   3,  28,   1,1.02175, -46.2021,1.10000,0.90000,1.10000,0.90000
  3013,'ABILENE 4 0 ', 115.0000,1,   3,  27,   1,1.03000,  11.4122,1.10000,0.90000,1.10000,0.90000
  3014,'KINGSLAND 0 ', 115.0000,1,   3,  28,   1,0.96915, -36.8823,1.10000,0.90000,1.10000,0.90000
  3015,'ROSCOE 6 0  ', 115.0000,1,   3,  27,   1,1.00680,  16.6058,1.10000,0.90000,1.10000,0.90000
  3016,'BLACKWELL 0 ', 115.0000,1,   3,  27,   1,1.00651,  13.2623,1.10000,0.90000,1.10000,0.90000
  3017,'BLACKWELL 1 ',  18.0000,2,   3,  27,   1,1.01000,  15.8653,1.10000,0.90000,1.10000,0.90000
  3018,'CHRISTOVAL 0', 230.0000,1,   3,  27,   1,0.99053,   3.9071,1.10000,0.90000,1.10000,0.90000
  3019,'CHRISTOVAL 1', 115.0000,1,   3,  27,   1,0.99941,   5.9837,1.10000,0.90000,1.10000,0.90000
  3020,'CHRISTOVAL 2',  13.8000,2,   3,  27,   1,1.00137,   6.0980,1.10000,0.90000,1.10000,0.90000
  3021,'LUEDERS 0   ', 115.0000,1,   3,  27,   1,0.99960,  11.8276,1.10000,0.90000,1.10000,0.90000
  3022,'COLORADO C~1', 115.0000,1,   3,  27,   1,0.98668,  18.0058,1.10000,0.90000,1.10000,0.90000
  3023,'STAMFORD 0  ', 115.0000,1,   3,  27,   1,1.03000,  17.3581,1.10000,0.90000,1.10000,0.90000
  3024,'ELDORADO 0  ', 115.0000,2,   3,  28,   1,1.00000,   8.2649,1.10000,0.90000,1.10000,0.90000
  3025,'SAN SABA 0  ', 115.0000,1,   3,  28,   1,0.90499, -16.7557,1.10000,0.90000,1.10000,0.90000
  3026,'ABILENE 2 0 ', 230.0000,1,   3,  27,   1,1.02185,   0.5663,1.10000,0.90000,1.10000,0.90000
  3027,'ABILENE 2 1 ', 115.0000,1,   3,  27,   1,1.01111,   3.2010,1.10000,0.90000,1.10000,0.90000
  3028,'ABILENE 2 2 ',  18.0000,2,   3,  27,   1,1.02861,   1.8805,1.10000,0.90000,1.10000,0.90000
  3029,'LOMETA 0    ', 115.0000,1,   3,  28,   1,1.00863, -25.4073,1.10000,0.90000,1.10000,0.90000
  3030,'SAN ANGELO~1', 115.0000,1,   3,  27,   1,1.03000,   5.2733,1.10000,0.90000,1.10000,0.90000
  3031,'TUSCOLA 0   ', 115.0000,1,   3,  27,   1,0.99974,  11.3198,1.10000,0.90000,1.10000,0.90000
  3032,'ABILENE 7 0 ', 115.0000,1,   3,  27,   1,1.01326,  12.0997,1.10000,0.90000,1.10000,0.90000
  3033,'SNYDER 1 0  ', 115.0000,1,   3,  27,   1,1.00061,  23.0591,1.10000,0.90000,1.10000,0.90000
  3034,'SNYDER 1 1  ',  22.0000,2,   3,  27,   1,1.02348,  27.7274,1.10000,0.90000,1.10000,0.90000
  3035,'CHEROKEE 0  ', 115.0000,1,   3,  28,   1,0.93590, -10.2160,1.10000,0.90000,1.10000,0.90000
  3036,'RICHLAND S~1', 115.0000,1,   3,  28,   1,0.92921,  -4.8321,1.10000,0.90000,1.10000,0.90000
  3037,'ROSCOE 2 0  ', 230.0000,1,   3,  27,   1,1.00660,  10.0902,1.10000,0.90000,1.10000,0.90000
  3038,'ROSCOE 2 1  ', 115.0000,1,   3,  27,   1,0.99131,  14.3013,1.10000,0.90000,1.10000,0.90000
  3039,'ROSCOE 2 2  ',  13.8000,2,   3,  27,   1,1.01348,  11.4393,1.10000,0.90000,1.10000,0.90000
  3040,'BALLINGER 0 ', 115.0000,1,   3,  27,   1,1.01582,   8.0320,1.10000,0.90000,1.10000,0.90000
  3041,'SILVER 0    ', 230.0000,2,   3,  27,   1,1.01128,   4.9609,1.10000,0.90000,1.10000,0.90000
  3042,'SILVER 1    ', 115.0000,2,   3,  27,   1,0.98781,  17.8188,1.10000,0.90000,1.10000,0.90000
  3043,'SILVER 2    ',  13.8000,2,   3,  27,   1,1.03252,   5.8650,1.10000,0.90000,1.10000,0.90000
  3044,'SILVER 3    ',  13.8000,2,   3,  27,   1,1.04000,   6.2240,1.10000,0.90000,1.10000,0.90000
  3045,'SILVER 4    ',  13.8000,2,   3,  27,   1,1.02821,   5.6771,1.10000,0.90000,1.10000,0.90000
  3046,'ROSCOE 5 0  ', 230.0000,1,   3,  27,   1,1.00880,   1.1394,1.10000,0.90000,1.10000,0.90000
  3047,'ROSCOE 5 1  ', 115.0000,1,   3,  27,   1,1.03000,  11.3851,1.10000,0.90000,1.10000,0.90000
  3048,'ROSCOE 5 2  ', 500.0000,2,   3,  27,   1,1.00431,  -5.4370,1.10000,0.90000,1.10000,0.90000
  3049,'ANSON 0     ', 115.0000,2,   3,  27,   1,1.01655,  15.5526,1.10000,0.90000,1.10000,0.90000
  3050,'DEL RIO 0   ', 230.0000,2,   3,  28,   1,1.03010,   6.5032,1.10000,0.90000,1.10000,0.90000
  3051,'DEL RIO 1   ', 115.0000,2,   3,  28,   1,1.02728,   9.1241,1.10000,0.90000,1.10000,0.90000
  3052,'HUNT 0      ', 115.0000,1,   3,  28,   1,0.98927, -37.9562,1.10000,0.90000,1.10000,0.90000
  3053,'WINGATE 0   ', 230.0000,1,   3,  27,   1,1.02885,   7.3032,1.10000,0.90000,1.10000,0.90000
  3054,'WINGATE 1   ', 115.0000,1,   3,  27,   1,1.00343,   9.7985,1.10000,0.90000,1.10000,0.90000
  3055,'WINGATE 2   ',  13.8000,2,   3,  27,   1,1.03651,   8.7485,1.10000,0.90000,1.10000,0.90000
  3056,'WINGATE 3   ',  13.8000,2,   3,  27,   1,1.04000,  10.0302,1.10000,0.90000,1.10000,0.90000
  3057,'WINGATE 4   ',  13.8000,2,   3,  27,   1,1.04000,   9.9451,1.10000,0.90000,1.10000,0.90000
  3058,'STERLING C~1', 230.0000,1,   3,  27,   1,1.01581,   9.7252,1.10000,0.90000,1.10000,0.90000
  3059,'STERLING C~2', 115.0000,1,   3,  27,   1,0.98430,  19.7357,1.10000,0.90000,1.10000,0.90000
  3060,'STERLING C~3',  18.0000,2,   3,  27,   1,1.03420,  13.5701,1.10000,0.90000,1.10000,0.90000
  3061,'STERLING C~4',  18.0000,2,   3,  27,   1,1.02938,  12.4838,1.10000,0.90000,1.10000,0.90000
  3062,'STERLING C~5',  18.0000,2,   3,  27,   1,1.02329,  11.1223,1.10000,0.90000,1.10000,0.90000
  3063,'STERLING C~6',  18.0000,2,   3,  27,   1,1.02622,  11.7073,1.10000,0.90000,1.10000,0.90000
  3064,'ROSCOE 4 0  ', 115.0000,1,   3,  27,   1,1.01832,  14.1905,1.10000,0.90000,1.10000,0.90000
  3065,'ROSCOE 4 1  ',  18.0000,2,   3,  27,   1,1.00923,  17.2173,1.10000,0.90000,1.10000,0.90000
  3066,'BRADY 0     ', 115.0000,2,   3,  28,   1,1.00000,  -1.2272,1.10000,0.90000,1.10000,0.90000
  3067,'TRENT 1 0   ', 115.0000,1,   3,  27,   1,1.01821,  15.7337,1.10000,0.90000,1.10000,0.90000
  3068,'TRENT 1 1   ',  20.0000,2,   3,  27,   1,1.02602,  17.2118,1.10000,0.90000,1.10000,0.90000
  3069,'OVALO 0     ', 115.0000,1,   3,  27,   1,0.99824,  10.1313,1.10000,0.90000,1.10000,0.90000
  3070,'NOLAN 0     ', 115.0000,1,   3,  27,   1,1.01870,  15.0825,1.10000,0.90000,1.10000,0.90000
  3071,'NOLAN 1     ',  24.0000,2,   3,  27,   1,1.01234,  17.3553,1.10000,0.90000,1.10000,0.90000
  3072,'MILES 0     ', 115.0000,1,   3,  27,   1,1.02815,   6.2870,1.10000,0.90000,1.10000,0.90000
  3073,'BRACKETTVI~3', 115.0000,1,   3,  28,   1,1.00859, -23.1417,1.10000,0.90000,1.10000,0.90000
  3074,'BRACKETTVI~4',  13.8000,2,   3,  28,   1,1.00469, -21.8909,1.10000,0.90000,1.10000,0.90000